/*--------------------------------*- C++ -*----------------------------------*\
| =========                 |                                                 |
| \\      /  F ield         | OpenFOAM: The Open Source CFD Toolbox           |
|  \\    /   O peration     | Version:  4.1                                   |
|   \\  /    A nd           | Web:      www.OpenFOAM.org                      |
|    \\/     M anipulation  |                                                 |
\*---------------------------------------------------------------------------*/
FoamFile
{
    version     2.0;
    format      ascii;
    class       dictionary;
    location    "system";
    object      setFieldsDict;
}
// * * * * * * * * * * * * * * * * * * * * * * * * * * * * * * * * * * * * * //

defaultFieldValues
(
    volScalarFieldValue alpha.water 0
);

regions
(
   boxToCell
    {
        box (0 0 -0.1) (2200e-6 700e-6 1350e-6);
        fieldValues
        (
            volScalarFieldValue alpha.water 1
        );
    }
    
 sphereToCell
{
   centre (1.249900e-05 2.124980e-04 1.249800e-05 );
    radius 1.250000e-05 ;
    fieldValues
    (
        volScalarFieldValue alpha.water 1
        volScalarFieldValue T 300
        volScalarFieldValue lf 0
    );
}
sphereToCell
{
   centre (3.764300e-05 2.124990e-04 1.335300e-05 );
    radius 1.250000e-05 ;
    fieldValues
    (
        volScalarFieldValue alpha.water 1
        volScalarFieldValue T 300
        volScalarFieldValue lf 0
    );
}
sphereToCell
{
   centre (6.227200e-05 2.189850e-04 1.249600e-05 );
    radius 1.250000e-05 ;
    fieldValues
    (
        volScalarFieldValue alpha.water 1
        volScalarFieldValue T 300
        volScalarFieldValue lf 0
    );
}
sphereToCell
{
   centre (8.936400e-05 2.149990e-04 1.499800e-05 );
    radius 1.500000e-05 ;
    fieldValues
    (
        volScalarFieldValue alpha.water 1
        volScalarFieldValue T 300
        volScalarFieldValue lf 0
    );
}
sphereToCell
{
   centre (1.188900e-04 2.149980e-04 2.032900e-05 );
    radius 1.500000e-05 ;
    fieldValues
    (
        volScalarFieldValue alpha.water 1
        volScalarFieldValue T 300
        volScalarFieldValue lf 0
    );
}
sphereToCell
{
   centre (1.594400e-04 2.149990e-04 1.925400e-05 );
    radius 1.500000e-05 ;
    fieldValues
    (
        volScalarFieldValue alpha.water 1
        volScalarFieldValue T 300
        volScalarFieldValue lf 0
    );
}
sphereToCell
{
   centre (1.895500e-04 2.149990e-04 1.499900e-05 );
    radius 1.500000e-05 ;
    fieldValues
    (
        volScalarFieldValue alpha.water 1
        volScalarFieldValue T 300
        volScalarFieldValue lf 0
    );
}
sphereToCell
{
   centre (2.427800e-04 2.199980e-04 1.999800e-05 );
    radius 2.000000e-05 ;
    fieldValues
    (
        volScalarFieldValue alpha.water 1
        volScalarFieldValue T 300
        volScalarFieldValue lf 0
    );
}
sphereToCell
{
   centre (2.779400e-04 2.124970e-04 1.249900e-05 );
    radius 1.250000e-05 ;
    fieldValues
    (
        volScalarFieldValue alpha.water 1
        volScalarFieldValue T 300
        volScalarFieldValue lf 0
    );
}
sphereToCell
{
   centre (3.043400e-04 2.149980e-04 1.980600e-05 );
    radius 1.500000e-05 ;
    fieldValues
    (
        volScalarFieldValue alpha.water 1
        volScalarFieldValue T 300
        volScalarFieldValue lf 0
    );
}
sphereToCell
{
   centre (3.627600e-04 2.149980e-04 1.504100e-05 );
    radius 1.500000e-05 ;
    fieldValues
    (
        volScalarFieldValue alpha.water 1
        volScalarFieldValue T 300
        volScalarFieldValue lf 0
    );
}
sphereToCell
{
   centre (1.499900e-05 2.149980e-04 4.601500e-05 );
    radius 1.500000e-05 ;
    fieldValues
    (
        volScalarFieldValue alpha.water 1
        volScalarFieldValue T 300
        volScalarFieldValue lf 0
    );
}
sphereToCell
{
   centre (5.867000e-05 2.199960e-04 4.477600e-05 );
    radius 2.000000e-05 ;
    fieldValues
    (
        volScalarFieldValue alpha.water 1
        volScalarFieldValue T 300
        volScalarFieldValue lf 0
    );
}
sphereToCell
{
   centre (8.785600e-05 2.149990e-04 6.497600e-05 );
    radius 1.500000e-05 ;
    fieldValues
    (
        volScalarFieldValue alpha.water 1
        volScalarFieldValue T 300
        volScalarFieldValue lf 0
    );
}
sphereToCell
{
   centre (9.061800e-05 2.262740e-04 4.004800e-05 );
    radius 1.250000e-05 ;
    fieldValues
    (
        volScalarFieldValue alpha.water 1
        volScalarFieldValue T 300
        volScalarFieldValue lf 0
    );
}
sphereToCell
{
   centre (1.103000e-04 2.124990e-04 4.695200e-05 );
    radius 1.250000e-05 ;
    fieldValues
    (
        volScalarFieldValue alpha.water 1
        volScalarFieldValue T 300
        volScalarFieldValue lf 0
    );
}
sphereToCell
{
   centre (1.375100e-04 2.149970e-04 4.384200e-05 );
    radius 1.500000e-05 ;
    fieldValues
    (
        volScalarFieldValue alpha.water 1
        volScalarFieldValue T 300
        volScalarFieldValue lf 0
    );
}
sphereToCell
{
   centre (1.793200e-04 2.149970e-04 4.319900e-05 );
    radius 1.500000e-05 ;
    fieldValues
    (
        volScalarFieldValue alpha.water 1
        volScalarFieldValue T 300
        volScalarFieldValue lf 0
    );
}
sphereToCell
{
   centre (2.119100e-04 2.149960e-04 3.572200e-05 );
    radius 1.500000e-05 ;
    fieldValues
    (
        volScalarFieldValue alpha.water 1
        volScalarFieldValue T 300
        volScalarFieldValue lf 0
    );
}
sphereToCell
{
   centre (2.349700e-04 2.124990e-04 5.064100e-05 );
    radius 1.250000e-05 ;
    fieldValues
    (
        volScalarFieldValue alpha.water 1
        volScalarFieldValue T 300
        volScalarFieldValue lf 0
    );
}
sphereToCell
{
   centre (2.727900e-04 2.199970e-04 4.643800e-05 );
    radius 2.000000e-05 ;
    fieldValues
    (
        volScalarFieldValue alpha.water 1
        volScalarFieldValue T 300
        volScalarFieldValue lf 0
    );
}
sphereToCell
{
   centre (3.055400e-04 2.124990e-04 4.720100e-05 );
    radius 1.250000e-05 ;
    fieldValues
    (
        volScalarFieldValue alpha.water 1
        volScalarFieldValue T 300
        volScalarFieldValue lf 0
    );
}
sphereToCell
{
   centre (3.355700e-04 2.199990e-04 3.650700e-05 );
    radius 2.000000e-05 ;
    fieldValues
    (
        volScalarFieldValue alpha.water 1
        volScalarFieldValue T 300
        volScalarFieldValue lf 0
    );
}
sphereToCell
{
   centre (3.590900e-04 2.149960e-04 6.206200e-05 );
    radius 1.500000e-05 ;
    fieldValues
    (
        volScalarFieldValue alpha.water 1
        volScalarFieldValue T 300
        volScalarFieldValue lf 0
    );
}
sphereToCell
{
   centre (1.499900e-05 2.149980e-04 7.601400e-05 );
    radius 1.500000e-05 ;
    fieldValues
    (
        volScalarFieldValue alpha.water 1
        volScalarFieldValue T 300
        volScalarFieldValue lf 0
    );
}
sphereToCell
{
   centre (6.284200e-05 2.124980e-04 7.612000e-05 );
    radius 1.250000e-05 ;
    fieldValues
    (
        volScalarFieldValue alpha.water 1
        volScalarFieldValue T 300
        volScalarFieldValue lf 0
    );
}
sphereToCell
{
   centre (8.562700e-05 2.199980e-04 9.958600e-05 );
    radius 2.000000e-05 ;
    fieldValues
    (
        volScalarFieldValue alpha.water 1
        volScalarFieldValue T 300
        volScalarFieldValue lf 0
    );
}
sphereToCell
{
   centre (1.163300e-04 2.149990e-04 7.440700e-05 );
    radius 1.500000e-05 ;
    fieldValues
    (
        volScalarFieldValue alpha.water 1
        volScalarFieldValue T 300
        volScalarFieldValue lf 0
    );
}
sphereToCell
{
   centre (1.412800e-04 2.252700e-04 6.907100e-05 );
    radius 1.250000e-05 ;
    fieldValues
    (
        volScalarFieldValue alpha.water 1
        volScalarFieldValue T 300
        volScalarFieldValue lf 0
    );
}
sphereToCell
{
   centre (1.667500e-04 2.150000e-04 7.043500e-05 );
    radius 1.500000e-05 ;
    fieldValues
    (
        volScalarFieldValue alpha.water 1
        volScalarFieldValue T 300
        volScalarFieldValue lf 0
    );
}
sphereToCell
{
   centre (1.820000e-04 2.124990e-04 9.318100e-05 );
    radius 1.250000e-05 ;
    fieldValues
    (
        volScalarFieldValue alpha.water 1
        volScalarFieldValue T 300
        volScalarFieldValue lf 0
    );
}
sphereToCell
{
   centre (2.024100e-04 2.199960e-04 6.902700e-05 );
    radius 2.000000e-05 ;
    fieldValues
    (
        volScalarFieldValue alpha.water 1
        volScalarFieldValue T 300
        volScalarFieldValue lf 0
    );
}
sphereToCell
{
   centre (2.484400e-04 2.149970e-04 8.056800e-05 );
    radius 1.500000e-05 ;
    fieldValues
    (
        volScalarFieldValue alpha.water 1
        volScalarFieldValue T 300
        volScalarFieldValue lf 0
    );
}
sphereToCell
{
   centre (2.684900e-04 2.243720e-04 9.689500e-05 );
    radius 1.250000e-05 ;
    fieldValues
    (
        volScalarFieldValue alpha.water 1
        volScalarFieldValue T 300
        volScalarFieldValue lf 0
    );
}
sphereToCell
{
   centre (2.876200e-04 2.149990e-04 7.951200e-05 );
    radius 1.500000e-05 ;
    fieldValues
    (
        volScalarFieldValue alpha.water 1
        volScalarFieldValue T 300
        volScalarFieldValue lf 0
    );
}
sphereToCell
{
   centre (3.283700e-04 2.124970e-04 6.729600e-05 );
    radius 1.250000e-05 ;
    fieldValues
    (
        volScalarFieldValue alpha.water 1
        volScalarFieldValue T 300
        volScalarFieldValue lf 0
    );
}
sphereToCell
{
   centre (3.175200e-04 2.199980e-04 9.700200e-05 );
    radius 2.000000e-05 ;
    fieldValues
    (
        volScalarFieldValue alpha.water 1
        volScalarFieldValue T 300
        volScalarFieldValue lf 0
    );
}
sphereToCell
{
   centre (3.486600e-04 2.124990e-04 9.098000e-05 );
    radius 1.250000e-05 ;
    fieldValues
    (
        volScalarFieldValue alpha.water 1
        volScalarFieldValue T 300
        volScalarFieldValue lf 0
    );
}
sphereToCell
{
   centre (1.500300e-05 2.149990e-04 1.145500e-04 );
    radius 1.500000e-05 ;
    fieldValues
    (
        volScalarFieldValue alpha.water 1
        volScalarFieldValue T 300
        volScalarFieldValue lf 0
    );
}
sphereToCell
{
   centre (6.848300e-05 2.124970e-04 1.264300e-04 );
    radius 1.250000e-05 ;
    fieldValues
    (
        volScalarFieldValue alpha.water 1
        volScalarFieldValue T 300
        volScalarFieldValue lf 0
    );
}
sphereToCell
{
   centre (1.171700e-04 2.124990e-04 1.017800e-04 );
    radius 1.250000e-05 ;
    fieldValues
    (
        volScalarFieldValue alpha.water 1
        volScalarFieldValue T 300
        volScalarFieldValue lf 0
    );
}
sphereToCell
{
   centre (1.256000e-04 2.149950e-04 1.278400e-04 );
    radius 1.500000e-05 ;
    fieldValues
    (
        volScalarFieldValue alpha.water 1
        volScalarFieldValue T 300
        volScalarFieldValue lf 0
    );
}
sphereToCell
{
   centre (1.511400e-04 2.199970e-04 1.024900e-04 );
    radius 2.000000e-05 ;
    fieldValues
    (
        volScalarFieldValue alpha.water 1
        volScalarFieldValue T 300
        volScalarFieldValue lf 0
    );
}
sphereToCell
{
   centre (1.807100e-04 2.149990e-04 1.205300e-04 );
    radius 1.500000e-05 ;
    fieldValues
    (
        volScalarFieldValue alpha.water 1
        volScalarFieldValue T 300
        volScalarFieldValue lf 0
    );
}
sphereToCell
{
   centre (2.074600e-04 2.149980e-04 1.032900e-04 );
    radius 1.500000e-05 ;
    fieldValues
    (
        volScalarFieldValue alpha.water 1
        volScalarFieldValue T 300
        volScalarFieldValue lf 0
    );
}
sphereToCell
{
   centre (2.324000e-04 2.124990e-04 1.147200e-04 );
    radius 1.250000e-05 ;
    fieldValues
    (
        volScalarFieldValue alpha.water 1
        volScalarFieldValue T 300
        volScalarFieldValue lf 0
    );
}
sphereToCell
{
   centre (2.573800e-04 2.124990e-04 1.158800e-04 );
    radius 1.250000e-05 ;
    fieldValues
    (
        volScalarFieldValue alpha.water 1
        volScalarFieldValue T 300
        volScalarFieldValue lf 0
    );
}
sphereToCell
{
   centre (2.862500e-04 2.124990e-04 1.103800e-04 );
    radius 1.250000e-05 ;
    fieldValues
    (
        volScalarFieldValue alpha.water 1
        volScalarFieldValue T 300
        volScalarFieldValue lf 0
    );
}
sphereToCell
{
   centre (3.290100e-04 2.124970e-04 1.264600e-04 );
    radius 1.250000e-05 ;
    fieldValues
    (
        volScalarFieldValue alpha.water 1
        volScalarFieldValue T 300
        volScalarFieldValue lf 0
    );
}
sphereToCell
{
   centre (3.675100e-04 2.124990e-04 1.074000e-04 );
    radius 1.250000e-05 ;
    fieldValues
    (
        volScalarFieldValue alpha.water 1
        volScalarFieldValue T 300
        volScalarFieldValue lf 0
    );
}
sphereToCell
{
   centre (1.249600e-05 2.124990e-04 1.418200e-04 );
    radius 1.250000e-05 ;
    fieldValues
    (
        volScalarFieldValue alpha.water 1
        volScalarFieldValue T 300
        volScalarFieldValue lf 0
    );
}
sphereToCell
{
   centre (3.875300e-05 2.149970e-04 1.340500e-04 );
    radius 1.500000e-05 ;
    fieldValues
    (
        volScalarFieldValue alpha.water 1
        volScalarFieldValue T 300
        volScalarFieldValue lf 0
    );
}
sphereToCell
{
   centre (4.662900e-05 2.124980e-04 1.602800e-04 );
    radius 1.250000e-05 ;
    fieldValues
    (
        volScalarFieldValue alpha.water 1
        volScalarFieldValue T 300
        volScalarFieldValue lf 0
    );
}
sphereToCell
{
   centre (7.916100e-05 2.199960e-04 1.572800e-04 );
    radius 2.000000e-05 ;
    fieldValues
    (
        volScalarFieldValue alpha.water 1
        volScalarFieldValue T 300
        volScalarFieldValue lf 0
    );
}
sphereToCell
{
   centre (1.100100e-04 2.124980e-04 1.503500e-04 );
    radius 1.250000e-05 ;
    fieldValues
    (
        volScalarFieldValue alpha.water 1
        volScalarFieldValue T 300
        volScalarFieldValue lf 0
    );
}
sphereToCell
{
   centre (1.390700e-04 2.149970e-04 1.546400e-04 );
    radius 1.500000e-05 ;
    fieldValues
    (
        volScalarFieldValue alpha.water 1
        volScalarFieldValue T 300
        volScalarFieldValue lf 0
    );
}
sphereToCell
{
   centre (1.566800e-04 2.124990e-04 1.336700e-04 );
    radius 1.250000e-05 ;
    fieldValues
    (
        volScalarFieldValue alpha.water 1
        volScalarFieldValue T 300
        volScalarFieldValue lf 0
    );
}
sphereToCell
{
   centre (1.762600e-04 2.124980e-04 1.506000e-04 );
    radius 1.250000e-05 ;
    fieldValues
    (
        volScalarFieldValue alpha.water 1
        volScalarFieldValue T 300
        volScalarFieldValue lf 0
    );
}
sphereToCell
{
   centre (2.107500e-04 2.199960e-04 1.377700e-04 );
    radius 2.000000e-05 ;
    fieldValues
    (
        volScalarFieldValue alpha.water 1
        volScalarFieldValue T 300
        volScalarFieldValue lf 0
    );
}
sphereToCell
{
   centre (2.465900e-04 2.149950e-04 1.442600e-04 );
    radius 1.500000e-05 ;
    fieldValues
    (
        volScalarFieldValue alpha.water 1
        volScalarFieldValue T 300
        volScalarFieldValue lf 0
    );
}
sphereToCell
{
   centre (2.279400e-04 2.124960e-04 1.643100e-04 );
    radius 1.250000e-05 ;
    fieldValues
    (
        volScalarFieldValue alpha.water 1
        volScalarFieldValue T 300
        volScalarFieldValue lf 0
    );
}
sphereToCell
{
   centre (2.676700e-04 2.124990e-04 1.618200e-04 );
    radius 1.250000e-05 ;
    fieldValues
    (
        volScalarFieldValue alpha.water 1
        volScalarFieldValue T 300
        volScalarFieldValue lf 0
    );
}
sphereToCell
{
   centre (2.950000e-04 2.149990e-04 1.590000e-04 );
    radius 1.500000e-05 ;
    fieldValues
    (
        volScalarFieldValue alpha.water 1
        volScalarFieldValue T 300
        volScalarFieldValue lf 0
    );
}
sphereToCell
{
   centre (3.209500e-04 2.124970e-04 1.501300e-04 );
    radius 1.250000e-05 ;
    fieldValues
    (
        volScalarFieldValue alpha.water 1
        volScalarFieldValue T 300
        volScalarFieldValue lf 0
    );
}
sphereToCell
{
   centre (3.514000e-04 2.149980e-04 1.422200e-04 );
    radius 1.500000e-05 ;
    fieldValues
    (
        volScalarFieldValue alpha.water 1
        volScalarFieldValue T 300
        volScalarFieldValue lf 0
    );
}
sphereToCell
{
   centre (3.733800e-04 2.149990e-04 1.626400e-04 );
    radius 1.500000e-05 ;
    fieldValues
    (
        volScalarFieldValue alpha.water 1
        volScalarFieldValue T 300
        volScalarFieldValue lf 0
    );
}
sphereToCell
{
   centre (3.109900e-05 2.124980e-04 1.873800e-04 );
    radius 1.250000e-05 ;
    fieldValues
    (
        volScalarFieldValue alpha.water 1
        volScalarFieldValue T 300
        volScalarFieldValue lf 0
    );
}
sphereToCell
{
   centre (5.838700e-05 2.149990e-04 1.850000e-04 );
    radius 1.500000e-05 ;
    fieldValues
    (
        volScalarFieldValue alpha.water 1
        volScalarFieldValue T 300
        volScalarFieldValue lf 0
    );
}
sphereToCell
{
   centre (1.006400e-04 2.149990e-04 1.850000e-04 );
    radius 1.500000e-05 ;
    fieldValues
    (
        volScalarFieldValue alpha.water 1
        volScalarFieldValue T 300
        volScalarFieldValue lf 0
    );
}
sphereToCell
{
   centre (1.274500e-04 2.124990e-04 1.794400e-04 );
    radius 1.250000e-05 ;
    fieldValues
    (
        volScalarFieldValue alpha.water 1
        volScalarFieldValue T 300
        volScalarFieldValue lf 0
    );
}
sphereToCell
{
   centre (1.530800e-04 2.124990e-04 1.868600e-04 );
    radius 1.250000e-05 ;
    fieldValues
    (
        volScalarFieldValue alpha.water 1
        volScalarFieldValue T 300
        volScalarFieldValue lf 0
    );
}
sphereToCell
{
   centre (1.879100e-04 2.199980e-04 1.800000e-04 );
    radius 2.000000e-05 ;
    fieldValues
    (
        volScalarFieldValue alpha.water 1
        volScalarFieldValue T 300
        volScalarFieldValue lf 0
    );
}
sphereToCell
{
   centre (2.186300e-04 2.125020e-04 1.875000e-04 );
    radius 1.250000e-05 ;
    fieldValues
    (
        volScalarFieldValue alpha.water 1
        volScalarFieldValue T 300
        volScalarFieldValue lf 0
    );
}
sphereToCell
{
   centre (2.941500e-04 2.124980e-04 1.873100e-04 );
    radius 1.250000e-05 ;
    fieldValues
    (
        volScalarFieldValue alpha.water 1
        volScalarFieldValue T 300
        volScalarFieldValue lf 0
    );
}
sphereToCell
{
   centre (3.191500e-04 2.124990e-04 1.875000e-04 );
    radius 1.250000e-05 ;
    fieldValues
    (
        volScalarFieldValue alpha.water 1
        volScalarFieldValue T 300
        volScalarFieldValue lf 0
    );
}
sphereToCell
{
   centre (3.402800e-04 2.149980e-04 1.700900e-04 );
    radius 1.500000e-05 ;
    fieldValues
    (
        volScalarFieldValue alpha.water 1
        volScalarFieldValue T 300
        volScalarFieldValue lf 0
    );
}
sphereToCell
{
   centre (3.618300e-04 2.124980e-04 1.874900e-04 );
    radius 1.250000e-05 ;
    fieldValues
    (
        volScalarFieldValue alpha.water 1
        volScalarFieldValue T 300
        volScalarFieldValue lf 0
    );
}
sphereToCell
{
   centre (3.922300e-04 2.124970e-04 1.445200e-05 );
    radius 1.250000e-05 ;
    fieldValues
    (
        volScalarFieldValue alpha.water 1
        volScalarFieldValue T 300
        volScalarFieldValue lf 0
    );
}
sphereToCell
{
   centre (4.325300e-04 2.149990e-04 1.500700e-05 );
    radius 1.500000e-05 ;
    fieldValues
    (
        volScalarFieldValue alpha.water 1
        volScalarFieldValue T 300
        volScalarFieldValue lf 0
    );
}
sphereToCell
{
   centre (4.625300e-04 2.149970e-04 1.499800e-05 );
    radius 1.500000e-05 ;
    fieldValues
    (
        volScalarFieldValue alpha.water 1
        volScalarFieldValue T 300
        volScalarFieldValue lf 0
    );
}
sphereToCell
{
   centre (4.976500e-04 2.124990e-04 2.027500e-05 );
    radius 1.250000e-05 ;
    fieldValues
    (
        volScalarFieldValue alpha.water 1
        volScalarFieldValue T 300
        volScalarFieldValue lf 0
    );
}
sphereToCell
{
   centre (5.218200e-04 2.124990e-04 1.362000e-05 );
    radius 1.250000e-05 ;
    fieldValues
    (
        volScalarFieldValue alpha.water 1
        volScalarFieldValue T 300
        volScalarFieldValue lf 0
    );
}
sphereToCell
{
   centre (5.078200e-04 2.297340e-04 9.999500e-06 );
    radius 1.000000e-05 ;
    fieldValues
    (
        volScalarFieldValue alpha.water 1
        volScalarFieldValue T 300
        volScalarFieldValue lf 0
    );
}
sphereToCell
{
   centre (5.608300e-04 2.199980e-04 2.073700e-05 );
    radius 2.000000e-05 ;
    fieldValues
    (
        volScalarFieldValue alpha.water 1
        volScalarFieldValue T 300
        volScalarFieldValue lf 0
    );
}
sphereToCell
{
   centre (5.922100e-04 2.124980e-04 1.249900e-05 );
    radius 1.250000e-05 ;
    fieldValues
    (
        volScalarFieldValue alpha.water 1
        volScalarFieldValue T 300
        volScalarFieldValue lf 0
    );
}
sphereToCell
{
   centre (6.350700e-04 2.124990e-04 1.249900e-05 );
    radius 1.250000e-05 ;
    fieldValues
    (
        volScalarFieldValue alpha.water 1
        volScalarFieldValue T 300
        volScalarFieldValue lf 0
    );
}
sphereToCell
{
   centre (6.586400e-04 2.149980e-04 2.648300e-05 );
    radius 1.500000e-05 ;
    fieldValues
    (
        volScalarFieldValue alpha.water 1
        volScalarFieldValue T 300
        volScalarFieldValue lf 0
    );
}
sphereToCell
{
   centre (6.863600e-04 2.149990e-04 1.500000e-05 );
    radius 1.500000e-05 ;
    fieldValues
    (
        volScalarFieldValue alpha.water 1
        volScalarFieldValue T 300
        volScalarFieldValue lf 0
    );
}
sphereToCell
{
   centre (7.432900e-04 2.124980e-04 1.249900e-05 );
    radius 1.250000e-05 ;
    fieldValues
    (
        volScalarFieldValue alpha.water 1
        volScalarFieldValue T 300
        volScalarFieldValue lf 0
    );
}
sphereToCell
{
   centre (3.795300e-04 2.149990e-04 3.993700e-05 );
    radius 1.500000e-05 ;
    fieldValues
    (
        volScalarFieldValue alpha.water 1
        volScalarFieldValue T 300
        volScalarFieldValue lf 0
    );
}
sphereToCell
{
   centre (3.985400e-04 2.124990e-04 5.965100e-05 );
    radius 1.250000e-05 ;
    fieldValues
    (
        volScalarFieldValue alpha.water 1
        volScalarFieldValue T 300
        volScalarFieldValue lf 0
    );
}
sphereToCell
{
   centre (4.147400e-04 2.124990e-04 3.769000e-05 );
    radius 1.250000e-05 ;
    fieldValues
    (
        volScalarFieldValue alpha.water 1
        volScalarFieldValue T 300
        volScalarFieldValue lf 0
    );
}
sphereToCell
{
   centre (4.292600e-04 2.149990e-04 6.498700e-05 );
    radius 1.500000e-05 ;
    fieldValues
    (
        volScalarFieldValue alpha.water 1
        volScalarFieldValue T 300
        volScalarFieldValue lf 0
    );
}
sphereToCell
{
   centre (4.491600e-04 2.149970e-04 4.184800e-05 );
    radius 1.500000e-05 ;
    fieldValues
    (
        volScalarFieldValue alpha.water 1
        volScalarFieldValue T 300
        volScalarFieldValue lf 0
    );
}
sphereToCell
{
   centre (4.771000e-04 2.124990e-04 3.818500e-05 );
    radius 1.250000e-05 ;
    fieldValues
    (
        volScalarFieldValue alpha.water 1
        volScalarFieldValue T 300
        volScalarFieldValue lf 0
    );
}
sphereToCell
{
   centre (4.955500e-04 2.149980e-04 5.842200e-05 );
    radius 1.500000e-05 ;
    fieldValues
    (
        volScalarFieldValue alpha.water 1
        volScalarFieldValue T 300
        volScalarFieldValue lf 0
    );
}
sphereToCell
{
   centre (5.289000e-04 2.199960e-04 4.482500e-05 );
    radius 2.000000e-05 ;
    fieldValues
    (
        volScalarFieldValue alpha.water 1
        volScalarFieldValue T 300
        volScalarFieldValue lf 0
    );
}
sphereToCell
{
   centre (5.635500e-04 2.124980e-04 5.224100e-05 );
    radius 1.250000e-05 ;
    fieldValues
    (
        volScalarFieldValue alpha.water 1
        volScalarFieldValue T 300
        volScalarFieldValue lf 0
    );
}
sphereToCell
{
   centre (5.925700e-04 2.149990e-04 3.988300e-05 );
    radius 1.500000e-05 ;
    fieldValues
    (
        volScalarFieldValue alpha.water 1
        volScalarFieldValue T 300
        volScalarFieldValue lf 0
    );
}
sphereToCell
{
   centre (6.292400e-04 2.199980e-04 4.483400e-05 );
    radius 2.000000e-05 ;
    fieldValues
    (
        volScalarFieldValue alpha.water 1
        volScalarFieldValue T 300
        volScalarFieldValue lf 0
    );
}
sphereToCell
{
   centre (6.619700e-04 2.149990e-04 5.630000e-05 );
    radius 1.500000e-05 ;
    fieldValues
    (
        volScalarFieldValue alpha.water 1
        volScalarFieldValue T 300
        volScalarFieldValue lf 0
    );
}
sphereToCell
{
   centre (6.970900e-04 2.199950e-04 5.109600e-05 );
    radius 2.000000e-05 ;
    fieldValues
    (
        volScalarFieldValue alpha.water 1
        volScalarFieldValue T 300
        volScalarFieldValue lf 0
    );
}
sphereToCell
{
   centre (7.267300e-04 2.124990e-04 4.003300e-05 );
    radius 1.250000e-05 ;
    fieldValues
    (
        volScalarFieldValue alpha.water 1
        volScalarFieldValue T 300
        volScalarFieldValue lf 0
    );
}
sphereToCell
{
   centre (3.832500e-04 2.149970e-04 8.435400e-05 );
    radius 1.500000e-05 ;
    fieldValues
    (
        volScalarFieldValue alpha.water 1
        volScalarFieldValue T 300
        volScalarFieldValue lf 0
    );
}
sphereToCell
{
   centre (4.134800e-04 2.149970e-04 9.058000e-05 );
    radius 1.500000e-05 ;
    fieldValues
    (
        volScalarFieldValue alpha.water 1
        volScalarFieldValue T 300
        volScalarFieldValue lf 0
    );
}
sphereToCell
{
   centre (4.476800e-04 2.199960e-04 9.614500e-05 );
    radius 2.000000e-05 ;
    fieldValues
    (
        volScalarFieldValue alpha.water 1
        volScalarFieldValue T 300
        volScalarFieldValue lf 0
    );
}
sphereToCell
{
   centre (4.728300e-04 2.124990e-04 7.536000e-05 );
    radius 1.250000e-05 ;
    fieldValues
    (
        volScalarFieldValue alpha.water 1
        volScalarFieldValue T 300
        volScalarFieldValue lf 0
    );
}
sphereToCell
{
   centre (4.982100e-04 2.124990e-04 9.172800e-05 );
    radius 1.250000e-05 ;
    fieldValues
    (
        volScalarFieldValue alpha.water 1
        volScalarFieldValue T 300
        volScalarFieldValue lf 0
    );
}
sphereToCell
{
   centre (5.233400e-04 2.149980e-04 8.084200e-05 );
    radius 1.500000e-05 ;
    fieldValues
    (
        volScalarFieldValue alpha.water 1
        volScalarFieldValue T 300
        volScalarFieldValue lf 0
    );
}
sphereToCell
{
   centre (5.492700e-04 2.177260e-04 7.208200e-05 );
    radius 1.250000e-05 ;
    fieldValues
    (
        volScalarFieldValue alpha.water 1
        volScalarFieldValue T 300
        volScalarFieldValue lf 0
    );
}
sphereToCell
{
   centre (5.678200e-04 2.124990e-04 8.799500e-05 );
    radius 1.250000e-05 ;
    fieldValues
    (
        volScalarFieldValue alpha.water 1
        volScalarFieldValue T 300
        volScalarFieldValue lf 0
    );
}
sphereToCell
{
   centre (6.089400e-04 2.124990e-04 6.995400e-05 );
    radius 1.250000e-05 ;
    fieldValues
    (
        volScalarFieldValue alpha.water 1
        volScalarFieldValue T 300
        volScalarFieldValue lf 0
    );
}
sphereToCell
{
   centre (6.014600e-04 2.149950e-04 9.648100e-05 );
    radius 1.500000e-05 ;
    fieldValues
    (
        volScalarFieldValue alpha.water 1
        volScalarFieldValue T 300
        volScalarFieldValue lf 0
    );
}
sphereToCell
{
   centre (6.354100e-04 2.124990e-04 7.584700e-05 );
    radius 1.250000e-05 ;
    fieldValues
    (
        volScalarFieldValue alpha.water 1
        volScalarFieldValue T 300
        volScalarFieldValue lf 0
    );
}
sphereToCell
{
   centre (6.743900e-04 2.149970e-04 8.364300e-05 );
    radius 1.500000e-05 ;
    fieldValues
    (
        volScalarFieldValue alpha.water 1
        volScalarFieldValue T 300
        volScalarFieldValue lf 0
    );
}
sphereToCell
{
   centre (7.007900e-04 2.149980e-04 9.789500e-05 );
    radius 1.500000e-05 ;
    fieldValues
    (
        volScalarFieldValue alpha.water 1
        volScalarFieldValue T 300
        volScalarFieldValue lf 0
    );
}
sphereToCell
{
   centre (7.274700e-04 2.149990e-04 7.026700e-05 );
    radius 1.500000e-05 ;
    fieldValues
    (
        volScalarFieldValue alpha.water 1
        volScalarFieldValue T 300
        volScalarFieldValue lf 0
    );
}
sphereToCell
{
   centre (3.942700e-04 2.252730e-04 1.073600e-04 );
    radius 1.250000e-05 ;
    fieldValues
    (
        volScalarFieldValue alpha.water 1
        volScalarFieldValue T 300
        volScalarFieldValue lf 0
    );
}
sphereToCell
{
   centre (3.827800e-04 2.149990e-04 1.301300e-04 );
    radius 1.500000e-05 ;
    fieldValues
    (
        volScalarFieldValue alpha.water 1
        volScalarFieldValue T 300
        volScalarFieldValue lf 0
    );
}
sphereToCell
{
   centre (4.206300e-04 2.199960e-04 1.256100e-04 );
    radius 2.000000e-05 ;
    fieldValues
    (
        volScalarFieldValue alpha.water 1
        volScalarFieldValue T 300
        volScalarFieldValue lf 0
    );
}
sphereToCell
{
   centre (4.625700e-04 2.124980e-04 1.263400e-04 );
    radius 1.250000e-05 ;
    fieldValues
    (
        volScalarFieldValue alpha.water 1
        volScalarFieldValue T 300
        volScalarFieldValue lf 0
    );
}
sphereToCell
{
   centre (4.823500e-04 2.124990e-04 1.110500e-04 );
    radius 1.250000e-05 ;
    fieldValues
    (
        volScalarFieldValue alpha.water 1
        volScalarFieldValue T 300
        volScalarFieldValue lf 0
    );
}
sphereToCell
{
   centre (5.090500e-04 2.149970e-04 1.171600e-04 );
    radius 1.500000e-05 ;
    fieldValues
    (
        volScalarFieldValue alpha.water 1
        volScalarFieldValue T 300
        volScalarFieldValue lf 0
    );
}
sphereToCell
{
   centre (5.367600e-04 2.149990e-04 1.286600e-04 );
    radius 1.500000e-05 ;
    fieldValues
    (
        volScalarFieldValue alpha.water 1
        volScalarFieldValue T 300